8
nh3 dimer
N     -3.354995   -0.348029   -0.094160
H     -3.194559   -0.449027    0.910538
H     -2.586892   -0.851282   -0.540239
H     -4.189714   -0.904349   -0.286619
N     -3.962086    2.615914    0.166617
H     -4.577576    2.825544   -0.617455
H     -3.784264    1.601785    0.083632
H     -3.067049    3.043831   -0.064602
