8
ethane
C     -4.003122    1.781333   -0.000187
C     -2.706732    1.003804    0.000163
H     -4.298675    2.036445    1.022400
H     -3.894495    2.710057   -0.568764
H     -4.805439    1.191763   -0.453487
H     -1.904428    1.593439    0.453473
H     -2.815373    0.075181    0.568723
H     -2.411205    0.748759   -1.022397
